********************************************************************************
* Library          : Counter
* Cell             : Counter2bit
* View             : schematic
* View Search List : auCdl schematic symbol
* View Stop List   : auCdl
********************************************************************************
.subckt Counter2bit CLK Q0 Q1
*.PININFO CLK:I Q0:O Q1:O
XI1 CLK Q0 Q0 Q1 net7 JKFF
XI0 CLK vdd! Q1 Q0 net2 JKFF
.ends Counter2bit

